<?xml version="1.0" encoding="UTF-8"?>

<!-- generated on 2026-01-31 19:45:43.459786 by Eclipse SUMO randomTrips.py UNKNOWN
<configuration>
    <net-file value="environment/basic_intersection.net.xml"/>
    <route-file value="environment/traffic.rou.xml"/>
    <trip-attributes value="departLane='best'"/>
    <seed value="199202"/>
    <end value="360.0"/>
    <period value="4.0"/>
</configuration>
-->

<routes xmlns:xsi="http://www.w3.org/2001/XMLSchema-instance" xsi:noNamespaceSchemaLocation="http://sumo.dlr.de/xsd/routes_file.xsd">
    <trip id="0" depart="0.00" from="inN" to="outW" departLane='best'/>
    <trip id="1" depart="4.00" from="inS" to="outW" departLane='best'/>
    <trip id="2" depart="8.00" from="inS" to="outW" departLane='best'/>
    <trip id="3" depart="12.00" from="inW" to="outN" departLane='best'/>
    <trip id="4" depart="16.00" from="inE" to="outS" departLane='best'/>
    <trip id="5" depart="20.00" from="inW" to="outS" departLane='best'/>
    <trip id="6" depart="24.00" from="inN" to="outS" departLane='best'/>
    <trip id="7" depart="28.00" from="inS" to="outE" departLane='best'/>
    <trip id="8" depart="32.00" from="inW" to="outS" departLane='best'/>
    <trip id="9" depart="36.00" from="inS" to="outN" departLane='best'/>
    <trip id="10" depart="40.00" from="inS" to="outW" departLane='best'/>
    <trip id="11" depart="44.00" from="inN" to="outE" departLane='best'/>
    <trip id="12" depart="48.00" from="inW" to="outS" departLane='best'/>
    <trip id="13" depart="52.00" from="inS" to="outE" departLane='best'/>
    <trip id="14" depart="56.00" from="inE" to="outW" departLane='best'/>
    <trip id="15" depart="60.00" from="inS" to="outN" departLane='best'/>
    <trip id="16" depart="64.00" from="inE" to="outN" departLane='best'/>
    <trip id="17" depart="68.00" from="inW" to="outN" departLane='best'/>
    <trip id="18" depart="72.00" from="inN" to="outS" departLane='best'/>
    <trip id="19" depart="76.00" from="inE" to="outS" departLane='best'/>
    <trip id="20" depart="80.00" from="inW" to="outN" departLane='best'/>
    <trip id="21" depart="84.00" from="inW" to="outE" departLane='best'/>
    <trip id="22" depart="88.00" from="inW" to="outS" departLane='best'/>
    <trip id="23" depart="92.00" from="inW" to="outN" departLane='best'/>
    <trip id="24" depart="96.00" from="inE" to="outS" departLane='best'/>
    <trip id="25" depart="100.00" from="inW" to="outE" departLane='best'/>
    <trip id="26" depart="104.00" from="inW" to="outE" departLane='best'/>
    <trip id="27" depart="108.00" from="inS" to="outN" departLane='best'/>
    <trip id="28" depart="112.00" from="inE" to="outS" departLane='best'/>
    <trip id="29" depart="116.00" from="inW" to="outN" departLane='best'/>
    <trip id="30" depart="120.00" from="inE" to="outS" departLane='best'/>
    <trip id="31" depart="124.00" from="inW" to="outS" departLane='best'/>
    <trip id="32" depart="128.00" from="inN" to="outS" departLane='best'/>
    <trip id="33" depart="132.00" from="inW" to="outE" departLane='best'/>
    <trip id="34" depart="136.00" from="inS" to="outN" departLane='best'/>
    <trip id="35" depart="140.00" from="inW" to="outE" departLane='best'/>
    <trip id="36" depart="144.00" from="inE" to="outN" departLane='best'/>
    <trip id="37" depart="148.00" from="inE" to="outW" departLane='best'/>
    <trip id="38" depart="152.00" from="inW" to="outS" departLane='best'/>
    <trip id="39" depart="156.00" from="inE" to="outS" departLane='best'/>
    <trip id="40" depart="160.00" from="inN" to="outE" departLane='best'/>
    <trip id="41" depart="164.00" from="inW" to="outN" departLane='best'/>
    <trip id="42" depart="168.00" from="inE" to="outW" departLane='best'/>
    <trip id="43" depart="172.00" from="inE" to="outN" departLane='best'/>
    <trip id="44" depart="176.00" from="inN" to="outE" departLane='best'/>
    <trip id="45" depart="180.00" from="inE" to="outN" departLane='best'/>
    <trip id="46" depart="184.00" from="inW" to="outE" departLane='best'/>
    <trip id="47" depart="188.00" from="inW" to="outE" departLane='best'/>
    <trip id="48" depart="192.00" from="inW" to="outN" departLane='best'/>
    <trip id="49" depart="196.00" from="inE" to="outW" departLane='best'/>
    <trip id="50" depart="200.00" from="inE" to="outS" departLane='best'/>
    <trip id="51" depart="204.00" from="inN" to="outS" departLane='best'/>
    <trip id="52" depart="208.00" from="inE" to="outS" departLane='best'/>
    <trip id="53" depart="212.00" from="inE" to="outS" departLane='best'/>
    <trip id="54" depart="216.00" from="inE" to="outS" departLane='best'/>
    <trip id="55" depart="220.00" from="inS" to="outE" departLane='best'/>
    <trip id="56" depart="224.00" from="inE" to="outW" departLane='best'/>
    <trip id="57" depart="228.00" from="inN" to="outS" departLane='best'/>
    <trip id="58" depart="232.00" from="inW" to="outS" departLane='best'/>
    <trip id="59" depart="236.00" from="inN" to="outW" departLane='best'/>
    <trip id="60" depart="240.00" from="inN" to="outE" departLane='best'/>
    <trip id="61" depart="244.00" from="inW" to="outS" departLane='best'/>
    <trip id="62" depart="248.00" from="inW" to="outE" departLane='best'/>
    <trip id="63" depart="252.00" from="inN" to="outE" departLane='best'/>
    <trip id="64" depart="256.00" from="inE" to="outN" departLane='best'/>
    <trip id="65" depart="260.00" from="inE" to="outS" departLane='best'/>
    <trip id="66" depart="264.00" from="inS" to="outW" departLane='best'/>
    <trip id="67" depart="268.00" from="inW" to="outS" departLane='best'/>
    <trip id="68" depart="272.00" from="inW" to="outN" departLane='best'/>
    <trip id="69" depart="276.00" from="inN" to="outE" departLane='best'/>
    <trip id="70" depart="280.00" from="inS" to="outN" departLane='best'/>
    <trip id="71" depart="284.00" from="inW" to="outS" departLane='best'/>
    <trip id="72" depart="288.00" from="inS" to="outE" departLane='best'/>
    <trip id="73" depart="292.00" from="inE" to="outN" departLane='best'/>
    <trip id="74" depart="296.00" from="inS" to="outN" departLane='best'/>
    <trip id="75" depart="300.00" from="inW" to="outE" departLane='best'/>
    <trip id="76" depart="304.00" from="inE" to="outN" departLane='best'/>
    <trip id="77" depart="308.00" from="inN" to="outW" departLane='best'/>
    <trip id="78" depart="312.00" from="inE" to="outN" departLane='best'/>
    <trip id="79" depart="316.00" from="inN" to="outS" departLane='best'/>
    <trip id="80" depart="320.00" from="inS" to="outN" departLane='best'/>
    <trip id="81" depart="324.00" from="inN" to="outE" departLane='best'/>
    <trip id="82" depart="328.00" from="inW" to="outE" departLane='best'/>
    <trip id="83" depart="332.00" from="inN" to="outS" departLane='best'/>
    <trip id="84" depart="336.00" from="inW" to="outS" departLane='best'/>
    <trip id="85" depart="340.00" from="inE" to="outN" departLane='best'/>
    <trip id="86" depart="344.00" from="inN" to="outW" departLane='best'/>
    <trip id="87" depart="348.00" from="inW" to="outS" departLane='best'/>
    <trip id="88" depart="352.00" from="inN" to="outW" departLane='best'/>
    <trip id="89" depart="356.00" from="inW" to="outN" departLane='best'/>
</routes>
