<?xml version="1.0" encoding="UTF-8"?>

<!-- generated on 2026-01-31 19:45:43.516308 by Eclipse SUMO randomTrips.py UNKNOWN
<configuration>
    <net-file value="environment/basic_intersection.net.xml"/>
    <route-file value="environment/traffic.rou.xml"/>
    <trip-attributes value="departLane='best'"/>
    <seed value="199202"/>
    <end value="360.0"/>
    <period value="4.0"/>
</configuration>
-->

<!-- generated on 2026-01-31T19:45:43.509012+10:00 by Eclipse SUMO duarouter 1.25.0
<duarouterConfiguration xmlns:xsi="http://www.w3.org/2001/XMLSchema-instance" xsi:noNamespaceSchemaLocation="http://sumo.dlr.de/xsd/duarouterConfiguration.xsd">

    <input>
        <net-file value="environment/basic_intersection.net.xml"/>
        <route-files value="trips.trips.xml"/>
    </input>

    <output>
        <output-file value="environment/traffic.rou.xml"/>
        <alternatives-output value="NUL"/>
    </output>

    <time>
        <begin value="0"/>
        <end value="360.0"/>
    </time>

    <report>
        <no-warnings value="true"/>
        <ignore-errors value="true"/>
        <no-step-log value="true"/>
    </report>

</duarouterConfiguration>
-->

<routes xmlns:xsi="http://www.w3.org/2001/XMLSchema-instance" xsi:noNamespaceSchemaLocation="http://sumo.dlr.de/xsd/routes_file.xsd">
    <vehicle id="0" depart="0.00" departLane="best">
        <route edges="inN outW"/>
    </vehicle>
    <vehicle id="1" depart="4.00" departLane="best">
        <route edges="inS outW"/>
    </vehicle>
    <vehicle id="2" depart="8.00" departLane="best">
        <route edges="inS outW"/>
    </vehicle>
    <vehicle id="3" depart="12.00" departLane="best">
        <route edges="inW outN"/>
    </vehicle>
    <vehicle id="4" depart="16.00" departLane="best">
        <route edges="inE outS"/>
    </vehicle>
    <vehicle id="5" depart="20.00" departLane="best">
        <route edges="inW outS"/>
    </vehicle>
    <vehicle id="6" depart="24.00" departLane="best">
        <route edges="inN outS"/>
    </vehicle>
    <vehicle id="7" depart="28.00" departLane="best">
        <route edges="inS outE"/>
    </vehicle>
    <vehicle id="8" depart="32.00" departLane="best">
        <route edges="inW outS"/>
    </vehicle>
    <vehicle id="9" depart="36.00" departLane="best">
        <route edges="inS outN"/>
    </vehicle>
    <vehicle id="10" depart="40.00" departLane="best">
        <route edges="inS outW"/>
    </vehicle>
    <vehicle id="11" depart="44.00" departLane="best">
        <route edges="inN outE"/>
    </vehicle>
    <vehicle id="12" depart="48.00" departLane="best">
        <route edges="inW outS"/>
    </vehicle>
    <vehicle id="13" depart="52.00" departLane="best">
        <route edges="inS outE"/>
    </vehicle>
    <vehicle id="14" depart="56.00" departLane="best">
        <route edges="inE outW"/>
    </vehicle>
    <vehicle id="15" depart="60.00" departLane="best">
        <route edges="inS outN"/>
    </vehicle>
    <vehicle id="16" depart="64.00" departLane="best">
        <route edges="inE outN"/>
    </vehicle>
    <vehicle id="17" depart="68.00" departLane="best">
        <route edges="inW outN"/>
    </vehicle>
    <vehicle id="18" depart="72.00" departLane="best">
        <route edges="inN outS"/>
    </vehicle>
    <vehicle id="19" depart="76.00" departLane="best">
        <route edges="inE outS"/>
    </vehicle>
    <vehicle id="20" depart="80.00" departLane="best">
        <route edges="inW outN"/>
    </vehicle>
    <vehicle id="21" depart="84.00" departLane="best">
        <route edges="inW outE"/>
    </vehicle>
    <vehicle id="22" depart="88.00" departLane="best">
        <route edges="inW outS"/>
    </vehicle>
    <vehicle id="23" depart="92.00" departLane="best">
        <route edges="inW outN"/>
    </vehicle>
    <vehicle id="24" depart="96.00" departLane="best">
        <route edges="inE outS"/>
    </vehicle>
    <vehicle id="25" depart="100.00" departLane="best">
        <route edges="inW outE"/>
    </vehicle>
    <vehicle id="26" depart="104.00" departLane="best">
        <route edges="inW outE"/>
    </vehicle>
    <vehicle id="27" depart="108.00" departLane="best">
        <route edges="inS outN"/>
    </vehicle>
    <vehicle id="28" depart="112.00" departLane="best">
        <route edges="inE outS"/>
    </vehicle>
    <vehicle id="29" depart="116.00" departLane="best">
        <route edges="inW outN"/>
    </vehicle>
    <vehicle id="30" depart="120.00" departLane="best">
        <route edges="inE outS"/>
    </vehicle>
    <vehicle id="31" depart="124.00" departLane="best">
        <route edges="inW outS"/>
    </vehicle>
    <vehicle id="32" depart="128.00" departLane="best">
        <route edges="inN outS"/>
    </vehicle>
    <vehicle id="33" depart="132.00" departLane="best">
        <route edges="inW outE"/>
    </vehicle>
    <vehicle id="34" depart="136.00" departLane="best">
        <route edges="inS outN"/>
    </vehicle>
    <vehicle id="35" depart="140.00" departLane="best">
        <route edges="inW outE"/>
    </vehicle>
    <vehicle id="36" depart="144.00" departLane="best">
        <route edges="inE outN"/>
    </vehicle>
    <vehicle id="37" depart="148.00" departLane="best">
        <route edges="inE outW"/>
    </vehicle>
    <vehicle id="38" depart="152.00" departLane="best">
        <route edges="inW outS"/>
    </vehicle>
    <vehicle id="39" depart="156.00" departLane="best">
        <route edges="inE outS"/>
    </vehicle>
    <vehicle id="40" depart="160.00" departLane="best">
        <route edges="inN outE"/>
    </vehicle>
    <vehicle id="41" depart="164.00" departLane="best">
        <route edges="inW outN"/>
    </vehicle>
    <vehicle id="42" depart="168.00" departLane="best">
        <route edges="inE outW"/>
    </vehicle>
    <vehicle id="43" depart="172.00" departLane="best">
        <route edges="inE outN"/>
    </vehicle>
    <vehicle id="44" depart="176.00" departLane="best">
        <route edges="inN outE"/>
    </vehicle>
    <vehicle id="45" depart="180.00" departLane="best">
        <route edges="inE outN"/>
    </vehicle>
    <vehicle id="46" depart="184.00" departLane="best">
        <route edges="inW outE"/>
    </vehicle>
    <vehicle id="47" depart="188.00" departLane="best">
        <route edges="inW outE"/>
    </vehicle>
    <vehicle id="48" depart="192.00" departLane="best">
        <route edges="inW outN"/>
    </vehicle>
    <vehicle id="49" depart="196.00" departLane="best">
        <route edges="inE outW"/>
    </vehicle>
    <vehicle id="50" depart="200.00" departLane="best">
        <route edges="inE outS"/>
    </vehicle>
    <vehicle id="51" depart="204.00" departLane="best">
        <route edges="inN outS"/>
    </vehicle>
    <vehicle id="52" depart="208.00" departLane="best">
        <route edges="inE outS"/>
    </vehicle>
    <vehicle id="53" depart="212.00" departLane="best">
        <route edges="inE outS"/>
    </vehicle>
    <vehicle id="54" depart="216.00" departLane="best">
        <route edges="inE outS"/>
    </vehicle>
    <vehicle id="55" depart="220.00" departLane="best">
        <route edges="inS outE"/>
    </vehicle>
    <vehicle id="56" depart="224.00" departLane="best">
        <route edges="inE outW"/>
    </vehicle>
    <vehicle id="57" depart="228.00" departLane="best">
        <route edges="inN outS"/>
    </vehicle>
    <vehicle id="58" depart="232.00" departLane="best">
        <route edges="inW outS"/>
    </vehicle>
    <vehicle id="59" depart="236.00" departLane="best">
        <route edges="inN outW"/>
    </vehicle>
    <vehicle id="60" depart="240.00" departLane="best">
        <route edges="inN outE"/>
    </vehicle>
    <vehicle id="61" depart="244.00" departLane="best">
        <route edges="inW outS"/>
    </vehicle>
    <vehicle id="62" depart="248.00" departLane="best">
        <route edges="inW outE"/>
    </vehicle>
    <vehicle id="63" depart="252.00" departLane="best">
        <route edges="inN outE"/>
    </vehicle>
    <vehicle id="64" depart="256.00" departLane="best">
        <route edges="inE outN"/>
    </vehicle>
    <vehicle id="65" depart="260.00" departLane="best">
        <route edges="inE outS"/>
    </vehicle>
    <vehicle id="66" depart="264.00" departLane="best">
        <route edges="inS outW"/>
    </vehicle>
    <vehicle id="67" depart="268.00" departLane="best">
        <route edges="inW outS"/>
    </vehicle>
    <vehicle id="68" depart="272.00" departLane="best">
        <route edges="inW outN"/>
    </vehicle>
    <vehicle id="69" depart="276.00" departLane="best">
        <route edges="inN outE"/>
    </vehicle>
    <vehicle id="70" depart="280.00" departLane="best">
        <route edges="inS outN"/>
    </vehicle>
    <vehicle id="71" depart="284.00" departLane="best">
        <route edges="inW outS"/>
    </vehicle>
    <vehicle id="72" depart="288.00" departLane="best">
        <route edges="inS outE"/>
    </vehicle>
    <vehicle id="73" depart="292.00" departLane="best">
        <route edges="inE outN"/>
    </vehicle>
    <vehicle id="74" depart="296.00" departLane="best">
        <route edges="inS outN"/>
    </vehicle>
    <vehicle id="75" depart="300.00" departLane="best">
        <route edges="inW outE"/>
    </vehicle>
    <vehicle id="76" depart="304.00" departLane="best">
        <route edges="inE outN"/>
    </vehicle>
    <vehicle id="77" depart="308.00" departLane="best">
        <route edges="inN outW"/>
    </vehicle>
    <vehicle id="78" depart="312.00" departLane="best">
        <route edges="inE outN"/>
    </vehicle>
    <vehicle id="79" depart="316.00" departLane="best">
        <route edges="inN outS"/>
    </vehicle>
    <vehicle id="80" depart="320.00" departLane="best">
        <route edges="inS outN"/>
    </vehicle>
    <vehicle id="81" depart="324.00" departLane="best">
        <route edges="inN outE"/>
    </vehicle>
    <vehicle id="82" depart="328.00" departLane="best">
        <route edges="inW outE"/>
    </vehicle>
    <vehicle id="83" depart="332.00" departLane="best">
        <route edges="inN outS"/>
    </vehicle>
    <vehicle id="84" depart="336.00" departLane="best">
        <route edges="inW outS"/>
    </vehicle>
    <vehicle id="85" depart="340.00" departLane="best">
        <route edges="inE outN"/>
    </vehicle>
    <vehicle id="86" depart="344.00" departLane="best">
        <route edges="inN outW"/>
    </vehicle>
    <vehicle id="87" depart="348.00" departLane="best">
        <route edges="inW outS"/>
    </vehicle>
    <vehicle id="88" depart="352.00" departLane="best">
        <route edges="inN outW"/>
    </vehicle>
    <vehicle id="89" depart="356.00" departLane="best">
        <route edges="inW outN"/>
    </vehicle>
</routes>
