<?xml version="1.0" encoding="UTF-8"?>

<!-- generated on 2026-01-30 12:29:09.780387 by Eclipse SUMO randomTrips.py UNKNOWN
<configuration>
    <net-file value="environment/basic_intersection.net.xml"/>
    <route-file value="environment/traffic.rou.xml"/>
    <trip-attributes value="departLane='best'"/>
    <seed value="345496"/>
    <end value="360.0"/>
    <period value="2.0"/>
</configuration>
-->

<!-- generated on 2026-01-30T12:29:09.771230+10:00 by Eclipse SUMO duarouter 1.25.0
<duarouterConfiguration xmlns:xsi="http://www.w3.org/2001/XMLSchema-instance" xsi:noNamespaceSchemaLocation="http://sumo.dlr.de/xsd/duarouterConfiguration.xsd">

    <input>
        <net-file value="environment/basic_intersection.net.xml"/>
        <route-files value="trips.trips.xml"/>
    </input>

    <output>
        <output-file value="environment/traffic.rou.xml"/>
        <alternatives-output value="NUL"/>
    </output>

    <time>
        <begin value="0"/>
        <end value="360.0"/>
    </time>

    <report>
        <no-warnings value="true"/>
        <ignore-errors value="true"/>
        <no-step-log value="true"/>
    </report>

</duarouterConfiguration>
-->

<routes xmlns:xsi="http://www.w3.org/2001/XMLSchema-instance" xsi:noNamespaceSchemaLocation="http://sumo.dlr.de/xsd/routes_file.xsd">
    <vehicle id="0" depart="0.00" departLane="best">
        <route edges="inE outN"/>
    </vehicle>
    <vehicle id="1" depart="2.00" departLane="best">
        <route edges="inE outS"/>
    </vehicle>
    <vehicle id="2" depart="4.00" departLane="best">
        <route edges="inE outW"/>
    </vehicle>
    <vehicle id="3" depart="6.00" departLane="best">
        <route edges="inN outE"/>
    </vehicle>
    <vehicle id="4" depart="8.00" departLane="best">
        <route edges="inN outW"/>
    </vehicle>
    <vehicle id="5" depart="10.00" departLane="best">
        <route edges="inN outW"/>
    </vehicle>
    <vehicle id="6" depart="12.00" departLane="best">
        <route edges="inN outS"/>
    </vehicle>
    <vehicle id="7" depart="14.00" departLane="best">
        <route edges="inS outW"/>
    </vehicle>
    <vehicle id="8" depart="16.00" departLane="best">
        <route edges="inE outS"/>
    </vehicle>
    <vehicle id="9" depart="18.00" departLane="best">
        <route edges="inS outE"/>
    </vehicle>
    <vehicle id="10" depart="20.00" departLane="best">
        <route edges="inW outS"/>
    </vehicle>
    <vehicle id="11" depart="22.00" departLane="best">
        <route edges="inS outW"/>
    </vehicle>
    <vehicle id="12" depart="24.00" departLane="best">
        <route edges="inW outE"/>
    </vehicle>
    <vehicle id="13" depart="26.00" departLane="best">
        <route edges="inE outW"/>
    </vehicle>
    <vehicle id="14" depart="28.00" departLane="best">
        <route edges="inN outW"/>
    </vehicle>
    <vehicle id="15" depart="30.00" departLane="best">
        <route edges="inS outW"/>
    </vehicle>
    <vehicle id="16" depart="32.00" departLane="best">
        <route edges="inS outW"/>
    </vehicle>
    <vehicle id="17" depart="34.00" departLane="best">
        <route edges="inW outS"/>
    </vehicle>
    <vehicle id="18" depart="36.00" departLane="best">
        <route edges="inE outS"/>
    </vehicle>
    <vehicle id="19" depart="38.00" departLane="best">
        <route edges="inW outS"/>
    </vehicle>
    <vehicle id="20" depart="40.00" departLane="best">
        <route edges="inW outN"/>
    </vehicle>
    <vehicle id="21" depart="42.00" departLane="best">
        <route edges="inS outW"/>
    </vehicle>
    <vehicle id="22" depart="44.00" departLane="best">
        <route edges="inS outE"/>
    </vehicle>
    <vehicle id="23" depart="46.00" departLane="best">
        <route edges="inE outW"/>
    </vehicle>
    <vehicle id="24" depart="48.00" departLane="best">
        <route edges="inN outW"/>
    </vehicle>
    <vehicle id="25" depart="50.00" departLane="best">
        <route edges="inS outW"/>
    </vehicle>
    <vehicle id="26" depart="52.00" departLane="best">
        <route edges="inW outS"/>
    </vehicle>
    <vehicle id="27" depart="54.00" departLane="best">
        <route edges="inW outE"/>
    </vehicle>
    <vehicle id="28" depart="56.00" departLane="best">
        <route edges="inW outN"/>
    </vehicle>
    <vehicle id="29" depart="58.00" departLane="best">
        <route edges="inN outW"/>
    </vehicle>
    <vehicle id="30" depart="60.00" departLane="best">
        <route edges="inN outE"/>
    </vehicle>
    <vehicle id="31" depart="62.00" departLane="best">
        <route edges="inE outN"/>
    </vehicle>
    <vehicle id="32" depart="64.00" departLane="best">
        <route edges="inW outN"/>
    </vehicle>
    <vehicle id="33" depart="66.00" departLane="best">
        <route edges="inS outN"/>
    </vehicle>
    <vehicle id="34" depart="68.00" departLane="best">
        <route edges="inE outN"/>
    </vehicle>
    <vehicle id="35" depart="70.00" departLane="best">
        <route edges="inN outS"/>
    </vehicle>
    <vehicle id="36" depart="72.00" departLane="best">
        <route edges="inE outS"/>
    </vehicle>
    <vehicle id="37" depart="74.00" departLane="best">
        <route edges="inS outE"/>
    </vehicle>
    <vehicle id="38" depart="76.00" departLane="best">
        <route edges="inW outE"/>
    </vehicle>
    <vehicle id="39" depart="78.00" departLane="best">
        <route edges="inW outE"/>
    </vehicle>
    <vehicle id="40" depart="80.00" departLane="best">
        <route edges="inE outN"/>
    </vehicle>
    <vehicle id="41" depart="82.00" departLane="best">
        <route edges="inE outN"/>
    </vehicle>
    <vehicle id="42" depart="84.00" departLane="best">
        <route edges="inN outW"/>
    </vehicle>
    <vehicle id="43" depart="86.00" departLane="best">
        <route edges="inE outS"/>
    </vehicle>
    <vehicle id="44" depart="88.00" departLane="best">
        <route edges="inS outE"/>
    </vehicle>
    <vehicle id="45" depart="90.00" departLane="best">
        <route edges="inW outE"/>
    </vehicle>
    <vehicle id="46" depart="92.00" departLane="best">
        <route edges="inN outS"/>
    </vehicle>
    <vehicle id="47" depart="94.00" departLane="best">
        <route edges="inW outN"/>
    </vehicle>
    <vehicle id="48" depart="96.00" departLane="best">
        <route edges="inN outW"/>
    </vehicle>
    <vehicle id="49" depart="98.00" departLane="best">
        <route edges="inW outN"/>
    </vehicle>
    <vehicle id="50" depart="100.00" departLane="best">
        <route edges="inS outW"/>
    </vehicle>
    <vehicle id="51" depart="102.00" departLane="best">
        <route edges="inW outE"/>
    </vehicle>
    <vehicle id="52" depart="104.00" departLane="best">
        <route edges="inW outN"/>
    </vehicle>
    <vehicle id="53" depart="106.00" departLane="best">
        <route edges="inE outS"/>
    </vehicle>
    <vehicle id="54" depart="108.00" departLane="best">
        <route edges="inW outN"/>
    </vehicle>
    <vehicle id="55" depart="110.00" departLane="best">
        <route edges="inE outS"/>
    </vehicle>
    <vehicle id="56" depart="112.00" departLane="best">
        <route edges="inS outW"/>
    </vehicle>
    <vehicle id="57" depart="114.00" departLane="best">
        <route edges="inW outE"/>
    </vehicle>
    <vehicle id="58" depart="116.00" departLane="best">
        <route edges="inW outN"/>
    </vehicle>
    <vehicle id="59" depart="118.00" departLane="best">
        <route edges="inW outS"/>
    </vehicle>
    <vehicle id="60" depart="120.00" departLane="best">
        <route edges="inS outN"/>
    </vehicle>
    <vehicle id="61" depart="122.00" departLane="best">
        <route edges="inS outN"/>
    </vehicle>
    <vehicle id="62" depart="124.00" departLane="best">
        <route edges="inN outS"/>
    </vehicle>
    <vehicle id="63" depart="126.00" departLane="best">
        <route edges="inN outW"/>
    </vehicle>
    <vehicle id="64" depart="128.00" departLane="best">
        <route edges="inN outW"/>
    </vehicle>
    <vehicle id="65" depart="130.00" departLane="best">
        <route edges="inN outW"/>
    </vehicle>
    <vehicle id="66" depart="132.00" departLane="best">
        <route edges="inE outS"/>
    </vehicle>
    <vehicle id="67" depart="134.00" departLane="best">
        <route edges="inE outW"/>
    </vehicle>
    <vehicle id="68" depart="136.00" departLane="best">
        <route edges="inE outS"/>
    </vehicle>
    <vehicle id="69" depart="138.00" departLane="best">
        <route edges="inS outW"/>
    </vehicle>
    <vehicle id="70" depart="140.00" departLane="best">
        <route edges="inN outE"/>
    </vehicle>
    <vehicle id="71" depart="142.00" departLane="best">
        <route edges="inW outN"/>
    </vehicle>
    <vehicle id="72" depart="144.00" departLane="best">
        <route edges="inW outE"/>
    </vehicle>
    <vehicle id="73" depart="146.00" departLane="best">
        <route edges="inW outE"/>
    </vehicle>
    <vehicle id="74" depart="148.00" departLane="best">
        <route edges="inN outW"/>
    </vehicle>
    <vehicle id="75" depart="150.00" departLane="best">
        <route edges="inS outE"/>
    </vehicle>
    <vehicle id="76" depart="152.00" departLane="best">
        <route edges="inS outE"/>
    </vehicle>
    <vehicle id="77" depart="154.00" departLane="best">
        <route edges="inW outN"/>
    </vehicle>
    <vehicle id="78" depart="156.00" departLane="best">
        <route edges="inN outE"/>
    </vehicle>
    <vehicle id="79" depart="158.00" departLane="best">
        <route edges="inN outW"/>
    </vehicle>
    <vehicle id="80" depart="160.00" departLane="best">
        <route edges="inN outE"/>
    </vehicle>
    <vehicle id="81" depart="162.00" departLane="best">
        <route edges="inS outE"/>
    </vehicle>
    <vehicle id="82" depart="164.00" departLane="best">
        <route edges="inW outE"/>
    </vehicle>
    <vehicle id="83" depart="166.00" departLane="best">
        <route edges="inS outE"/>
    </vehicle>
    <vehicle id="84" depart="168.00" departLane="best">
        <route edges="inE outW"/>
    </vehicle>
    <vehicle id="85" depart="170.00" departLane="best">
        <route edges="inS outE"/>
    </vehicle>
    <vehicle id="86" depart="172.00" departLane="best">
        <route edges="inW outS"/>
    </vehicle>
    <vehicle id="87" depart="174.00" departLane="best">
        <route edges="inE outS"/>
    </vehicle>
    <vehicle id="88" depart="176.00" departLane="best">
        <route edges="inW outS"/>
    </vehicle>
    <vehicle id="89" depart="178.00" departLane="best">
        <route edges="inE outW"/>
    </vehicle>
    <vehicle id="90" depart="180.00" departLane="best">
        <route edges="inE outW"/>
    </vehicle>
    <vehicle id="91" depart="182.00" departLane="best">
        <route edges="inW outS"/>
    </vehicle>
    <vehicle id="92" depart="184.00" departLane="best">
        <route edges="inN outE"/>
    </vehicle>
    <vehicle id="93" depart="186.00" departLane="best">
        <route edges="inS outN"/>
    </vehicle>
    <vehicle id="94" depart="188.00" departLane="best">
        <route edges="inN outW"/>
    </vehicle>
    <vehicle id="95" depart="190.00" departLane="best">
        <route edges="inE outW"/>
    </vehicle>
    <vehicle id="96" depart="192.00" departLane="best">
        <route edges="inS outN"/>
    </vehicle>
    <vehicle id="97" depart="194.00" departLane="best">
        <route edges="inE outS"/>
    </vehicle>
    <vehicle id="98" depart="196.00" departLane="best">
        <route edges="inW outN"/>
    </vehicle>
    <vehicle id="99" depart="198.00" departLane="best">
        <route edges="inS outE"/>
    </vehicle>
    <vehicle id="100" depart="200.00" departLane="best">
        <route edges="inE outS"/>
    </vehicle>
    <vehicle id="101" depart="202.00" departLane="best">
        <route edges="inE outS"/>
    </vehicle>
    <vehicle id="102" depart="204.00" departLane="best">
        <route edges="inS outW"/>
    </vehicle>
    <vehicle id="103" depart="206.00" departLane="best">
        <route edges="inW outS"/>
    </vehicle>
    <vehicle id="104" depart="208.00" departLane="best">
        <route edges="inW outE"/>
    </vehicle>
    <vehicle id="105" depart="210.00" departLane="best">
        <route edges="inE outN"/>
    </vehicle>
    <vehicle id="106" depart="212.00" departLane="best">
        <route edges="inW outS"/>
    </vehicle>
    <vehicle id="107" depart="214.00" departLane="best">
        <route edges="inE outW"/>
    </vehicle>
    <vehicle id="108" depart="216.00" departLane="best">
        <route edges="inS outW"/>
    </vehicle>
    <vehicle id="109" depart="218.00" departLane="best">
        <route edges="inE outS"/>
    </vehicle>
    <vehicle id="110" depart="220.00" departLane="best">
        <route edges="inN outS"/>
    </vehicle>
    <vehicle id="111" depart="222.00" departLane="best">
        <route edges="inS outW"/>
    </vehicle>
    <vehicle id="112" depart="224.00" departLane="best">
        <route edges="inE outS"/>
    </vehicle>
    <vehicle id="113" depart="226.00" departLane="best">
        <route edges="inN outW"/>
    </vehicle>
    <vehicle id="114" depart="228.00" departLane="best">
        <route edges="inN outW"/>
    </vehicle>
    <vehicle id="115" depart="230.00" departLane="best">
        <route edges="inE outN"/>
    </vehicle>
    <vehicle id="116" depart="232.00" departLane="best">
        <route edges="inW outN"/>
    </vehicle>
    <vehicle id="117" depart="234.00" departLane="best">
        <route edges="inN outW"/>
    </vehicle>
    <vehicle id="118" depart="236.00" departLane="best">
        <route edges="inS outN"/>
    </vehicle>
    <vehicle id="119" depart="238.00" departLane="best">
        <route edges="inE outN"/>
    </vehicle>
    <vehicle id="120" depart="240.00" departLane="best">
        <route edges="inE outN"/>
    </vehicle>
    <vehicle id="121" depart="242.00" departLane="best">
        <route edges="inN outE"/>
    </vehicle>
    <vehicle id="122" depart="244.00" departLane="best">
        <route edges="inS outE"/>
    </vehicle>
    <vehicle id="123" depart="246.00" departLane="best">
        <route edges="inW outN"/>
    </vehicle>
    <vehicle id="124" depart="248.00" departLane="best">
        <route edges="inW outS"/>
    </vehicle>
    <vehicle id="125" depart="250.00" departLane="best">
        <route edges="inN outW"/>
    </vehicle>
    <vehicle id="126" depart="252.00" departLane="best">
        <route edges="inE outW"/>
    </vehicle>
    <vehicle id="127" depart="254.00" departLane="best">
        <route edges="inN outW"/>
    </vehicle>
    <vehicle id="128" depart="256.00" departLane="best">
        <route edges="inN outE"/>
    </vehicle>
    <vehicle id="129" depart="258.00" departLane="best">
        <route edges="inW outN"/>
    </vehicle>
    <vehicle id="130" depart="260.00" departLane="best">
        <route edges="inE outW"/>
    </vehicle>
    <vehicle id="131" depart="262.00" departLane="best">
        <route edges="inS outN"/>
    </vehicle>
    <vehicle id="132" depart="264.00" departLane="best">
        <route edges="inS outN"/>
    </vehicle>
    <vehicle id="133" depart="266.00" departLane="best">
        <route edges="inS outE"/>
    </vehicle>
    <vehicle id="134" depart="268.00" departLane="best">
        <route edges="inN outW"/>
    </vehicle>
    <vehicle id="135" depart="270.00" departLane="best">
        <route edges="inW outS"/>
    </vehicle>
    <vehicle id="136" depart="272.00" departLane="best">
        <route edges="inN outW"/>
    </vehicle>
    <vehicle id="137" depart="274.00" departLane="best">
        <route edges="inE outW"/>
    </vehicle>
    <vehicle id="138" depart="276.00" departLane="best">
        <route edges="inN outE"/>
    </vehicle>
    <vehicle id="139" depart="278.00" departLane="best">
        <route edges="inN outS"/>
    </vehicle>
    <vehicle id="140" depart="280.00" departLane="best">
        <route edges="inE outS"/>
    </vehicle>
    <vehicle id="141" depart="282.00" departLane="best">
        <route edges="inN outS"/>
    </vehicle>
    <vehicle id="142" depart="284.00" departLane="best">
        <route edges="inN outE"/>
    </vehicle>
    <vehicle id="143" depart="286.00" departLane="best">
        <route edges="inE outN"/>
    </vehicle>
    <vehicle id="144" depart="288.00" departLane="best">
        <route edges="inN outW"/>
    </vehicle>
    <vehicle id="145" depart="290.00" departLane="best">
        <route edges="inN outW"/>
    </vehicle>
    <vehicle id="146" depart="292.00" departLane="best">
        <route edges="inE outN"/>
    </vehicle>
    <vehicle id="147" depart="294.00" departLane="best">
        <route edges="inW outN"/>
    </vehicle>
    <vehicle id="148" depart="296.00" departLane="best">
        <route edges="inN outS"/>
    </vehicle>
    <vehicle id="149" depart="298.00" departLane="best">
        <route edges="inW outE"/>
    </vehicle>
    <vehicle id="150" depart="300.00" departLane="best">
        <route edges="inN outS"/>
    </vehicle>
    <vehicle id="151" depart="302.00" departLane="best">
        <route edges="inN outW"/>
    </vehicle>
    <vehicle id="152" depart="304.00" departLane="best">
        <route edges="inE outS"/>
    </vehicle>
    <vehicle id="153" depart="306.00" departLane="best">
        <route edges="inN outW"/>
    </vehicle>
    <vehicle id="154" depart="308.00" departLane="best">
        <route edges="inE outW"/>
    </vehicle>
    <vehicle id="155" depart="310.00" departLane="best">
        <route edges="inN outS"/>
    </vehicle>
    <vehicle id="156" depart="312.00" departLane="best">
        <route edges="inW outE"/>
    </vehicle>
    <vehicle id="157" depart="314.00" departLane="best">
        <route edges="inS outE"/>
    </vehicle>
    <vehicle id="158" depart="316.00" departLane="best">
        <route edges="inS outW"/>
    </vehicle>
    <vehicle id="159" depart="318.00" departLane="best">
        <route edges="inE outN"/>
    </vehicle>
    <vehicle id="160" depart="320.00" departLane="best">
        <route edges="inS outW"/>
    </vehicle>
    <vehicle id="161" depart="322.00" departLane="best">
        <route edges="inW outS"/>
    </vehicle>
    <vehicle id="162" depart="324.00" departLane="best">
        <route edges="inS outW"/>
    </vehicle>
    <vehicle id="163" depart="326.00" departLane="best">
        <route edges="inN outS"/>
    </vehicle>
    <vehicle id="164" depart="328.00" departLane="best">
        <route edges="inN outW"/>
    </vehicle>
    <vehicle id="165" depart="330.00" departLane="best">
        <route edges="inE outN"/>
    </vehicle>
    <vehicle id="166" depart="332.00" departLane="best">
        <route edges="inE outS"/>
    </vehicle>
    <vehicle id="167" depart="334.00" departLane="best">
        <route edges="inN outW"/>
    </vehicle>
    <vehicle id="168" depart="336.00" departLane="best">
        <route edges="inW outN"/>
    </vehicle>
    <vehicle id="169" depart="338.00" departLane="best">
        <route edges="inS outE"/>
    </vehicle>
    <vehicle id="170" depart="340.00" departLane="best">
        <route edges="inW outN"/>
    </vehicle>
    <vehicle id="171" depart="342.00" departLane="best">
        <route edges="inE outS"/>
    </vehicle>
    <vehicle id="172" depart="344.00" departLane="best">
        <route edges="inS outE"/>
    </vehicle>
    <vehicle id="173" depart="346.00" departLane="best">
        <route edges="inS outN"/>
    </vehicle>
    <vehicle id="174" depart="348.00" departLane="best">
        <route edges="inW outE"/>
    </vehicle>
    <vehicle id="175" depart="350.00" departLane="best">
        <route edges="inE outW"/>
    </vehicle>
    <vehicle id="176" depart="352.00" departLane="best">
        <route edges="inN outE"/>
    </vehicle>
    <vehicle id="177" depart="354.00" departLane="best">
        <route edges="inN outS"/>
    </vehicle>
    <vehicle id="178" depart="356.00" departLane="best">
        <route edges="inS outW"/>
    </vehicle>
    <vehicle id="179" depart="358.00" departLane="best">
        <route edges="inW outS"/>
    </vehicle>
</routes>
